[Format]      =  4.0
[Frequency]   =  0
[Precision]   =  1e-008
[MinAngle]    =  15
[DoSmartMesh] =  0
[Depth]       =  105
[LengthUnits] =  millimeters
[ProblemType] =  planar
[Coordinates] =  cartesian
[ACSolver]    =  0
[PrevType]    =  0
[PrevSoln]    =  ""
[Comment]     =  "Add comments here."
[PointProps]   = 0
[BdryProps]   = 11
  <BeginBdry>
    <BdryName> = "A=0"
    <BdryType> = 0
    <A_0> = 0
    <A_1> = 0
    <A_2> = 0
    <Phi> = 0
    <c0> = 0
    <c0i> = 0
    <c1> = 0
    <c1i> = 0
    <Mu_ssd> = 0
    <Sigma_ssd> = 0
    <innerangle> = 0
    <outerangle> = 0
  <EndBdry>
  <BeginBdry>
    <BdryName> = "APr1"
    <BdryType> = 5
    <A_0> = 0
    <A_1> = 0
    <A_2> = 0
    <Phi> = 0
    <c0> = 0
    <c0i> = 0
    <c1> = 0
    <c1i> = 0
    <Mu_ssd> = 0
    <Sigma_ssd> = 0
    <innerangle> = 0
    <outerangle> = 0
  <EndBdry>
  <BeginBdry>
    <BdryName> = "APr2"
    <BdryType> = 5
    <A_0> = 0
    <A_1> = 0
    <A_2> = 0
    <Phi> = 0
    <c0> = 0
    <c0i> = 0
    <c1> = 0
    <c1i> = 0
    <Mu_ssd> = 0
    <Sigma_ssd> = 0
    <innerangle> = 0
    <outerangle> = 0
  <EndBdry>
  <BeginBdry>
    <BdryName> = "APr3"
    <BdryType> = 5
    <A_0> = 0
    <A_1> = 0
    <A_2> = 0
    <Phi> = 0
    <c0> = 0
    <c0i> = 0
    <c1> = 0
    <c1i> = 0
    <Mu_ssd> = 0
    <Sigma_ssd> = 0
    <innerangle> = 0
    <outerangle> = 0
  <EndBdry>
  <BeginBdry>
    <BdryName> = "APg1"
    <BdryType> = 5
    <A_0> = 0
    <A_1> = 0
    <A_2> = 0
    <Phi> = 0
    <c0> = 0
    <c0i> = 0
    <c1> = 0
    <c1i> = 0
    <Mu_ssd> = 0
    <Sigma_ssd> = 0
    <innerangle> = 0
    <outerangle> = 0
  <EndBdry>
  <BeginBdry>
    <BdryName> = "APg2"
    <BdryType> = 5
    <A_0> = 0
    <A_1> = 0
    <A_2> = 0
    <Phi> = 0
    <c0> = 0
    <c0i> = 0
    <c1> = 0
    <c1i> = 0
    <Mu_ssd> = 0
    <Sigma_ssd> = 0
    <innerangle> = 0
    <outerangle> = 0
  <EndBdry>
  <BeginBdry>
    <BdryName> = "APg3"
    <BdryType> = 5
    <A_0> = 0
    <A_1> = 0
    <A_2> = 0
    <Phi> = 0
    <c0> = 0
    <c0i> = 0
    <c1> = 0
    <c1i> = 0
    <Mu_ssd> = 0
    <Sigma_ssd> = 0
    <innerangle> = 0
    <outerangle> = 0
  <EndBdry>
  <BeginBdry>
    <BdryName> = "APs1"
    <BdryType> = 5
    <A_0> = 0
    <A_1> = 0
    <A_2> = 0
    <Phi> = 0
    <c0> = 0
    <c0i> = 0
    <c1> = 0
    <c1i> = 0
    <Mu_ssd> = 0
    <Sigma_ssd> = 0
    <innerangle> = 0
    <outerangle> = 0
  <EndBdry>
  <BeginBdry>
    <BdryName> = "APs2"
    <BdryType> = 5
    <A_0> = 0
    <A_1> = 0
    <A_2> = 0
    <Phi> = 0
    <c0> = 0
    <c0i> = 0
    <c1> = 0
    <c1i> = 0
    <Mu_ssd> = 0
    <Sigma_ssd> = 0
    <innerangle> = 0
    <outerangle> = 0
  <EndBdry>
  <BeginBdry>
    <BdryName> = "APs3"
    <BdryType> = 5
    <A_0> = 0
    <A_1> = 0
    <A_2> = 0
    <Phi> = 0
    <c0> = 0
    <c0i> = 0
    <c1> = 0
    <c1i> = 0
    <Mu_ssd> = 0
    <Sigma_ssd> = 0
    <innerangle> = 0
    <outerangle> = 0
  <EndBdry>
  <BeginBdry>
    <BdryName> = "AGap"
    <BdryType> = 7
    <A_0> = 0
    <A_1> = 0
    <A_2> = 0
    <Phi> = 0
    <c0> = 0
    <c0i> = 0
    <c1> = 0
    <c1i> = 0
    <Mu_ssd> = 0
    <Sigma_ssd> = 0
    <innerangle> = 0
    <outerangle> = 0
  <EndBdry>
[BlockProps]  = 9
  <BeginBlock>
    <BlockName> = "M530-65A-OK"
    <Mu_x> = 1
    <Mu_y> = 1
    <H_c> = 0
    <H_cAngle> = 0
    <J_re> = 0
    <J_im> = 0
    <Sigma> = 0
    <d_lam> = 0
    <Phi_h> = 0
    <Phi_hx> = 0
    <Phi_hy> = 0
    <LamType> = 0
    <LamFill> = 0.97999999999999998
    <NStrands> = 0
    <WireD> = 0
    <BHPoints> = 199
      0	0
      0.018848	12.326973000000001
      0.038573999999999997	22.163343000000001
      0.059312999999999998	30.264441000000001
      0.081240999999999994	37.121026999999998
      0.104587	43.070056000000001
      0.12967000000000001	48.356479
      0.156946	53.171472999999999
      0.187116	57.680774999999997
      0.221361	62.054786999999997
      0.26198100000000002	66.524258000000003
      0.314919	71.574237999999994
      0.442722	82.040378000000004
      0.57165600000000005	92.228953000000004
      0.62506200000000001	96.637904000000006
      0.66604200000000002	100.157055
      0.70059000000000005	103.243889
      0.73102699999999998	106.07473
      0.75854500000000002	108.74006199999999
      0.78385000000000005	111.294023
      0.80740299999999998	113.77241100000001
      0.82952400000000004	116.200692
      0.85044799999999998	118.598054
      0.87034800000000001	120.97966099999999
      0.88936300000000001	123.358001
      0.90760099999999999	125.743736
      0.925149	128.146277
      0.94208199999999997	130.574173
      0.95845899999999995	133.03539799999999
      0.97433099999999995	135.53756799999999
      0.98974300000000004	138.088109
      1.0047330000000001	140.69439700000001
      1.019333	143.36387099999999
      1.0335719999999999	146.10414599999999
      1.047477	148.923102
      1.0610679999999999	151.82898499999999
      1.074368	154.830499
      1.0873930000000001	157.93690100000001
      1.10016	161.158107
      1.1126830000000001	164.50479999999999
      1.1249769999999999	167.98855499999999
      1.137054	171.62196900000001
      1.1489229999999999	175.41881900000001
      1.1605970000000001	179.394229
      1.1720839999999999	183.56486799999999
      1.183392	187.94917699999999
      1.194531	192.56763000000001
      1.2055070000000001	197.44303199999999
      1.2163269999999999	202.600876
      1.226998	208.069751
      1.237525	213.881823
      1.2479150000000001	220.073407
      1.258173	226.685632
      1.268303	233.76522800000001
      1.278311	241.36546999999999
      1.2882	249.547281
      1.297974	258.38055000000003
      1.307639	267.945695
      1.317196	278.33551
      1.3266500000000001	289.657352
      1.336004	302.03570000000002
      1.345261	315.615139
      1.3544240000000001	330.56378699999999
      1.363496	347.07715100000001
      1.372479	365.38233400000001
      1.3813770000000001	385.74240600000002
      1.390191	408.46058799999997
      1.3989229999999999	433.88362499999999
      1.4075770000000001	462.40341799999999
      1.416153	494.45556900000003
      1.424655	530.51313400000004
      1.433084	571.07376399999998
      1.4414419999999999	616.63877300000001
      1.44973	667.683943
      1.457951	724.6241
      1.466105	787.77634999999998
      1.4741949999999999	857.32916
      1.4822219999999999	933.32478600000002
      1.4901880000000001	1015.660001
      1.498094	1104.1052070000001
      1.5059400000000001	1198.337168
      1.51373	1297.9777180000001
      1.521463	1402.631005
      1.5291399999999999	1511.9141030000001
      1.5367649999999999	1625.4788289999999
      1.5443359999999999	1743.0249819999999
      1.5518559999999999	1864.306583
      1.5593250000000001	1989.1331339999999
      1.5667439999999999	2117.3677389999998
      1.5741149999999999	2248.9235370000001
      1.5814379999999999	2383.7594840000002
      1.588714	2521.8761
      1.595944	2663.3115870000001
      1.603129	2808.1384779999998
      1.6102700000000001	2956.460916
      1.6173679999999999	3108.4125450000001
      1.624423	3264.1550130000001
      1.6314360000000001	3423.8770279999999
      1.6384080000000001	3587.7939299999998
      1.64534	3756.1477399999999
      1.6522319999999999	3929.2076630000001
      1.659084	4107.2710040000002
      1.665899	4290.6645090000002
      1.6726749999999999	4479.7461000000003
      1.6794150000000001	4674.9070380000003
      1.686118	4876.5745010000001
      1.692785	5085.214626
      1.699417	5301.3360259999999
      1.7060139999999999	5525.493837
      1.7125760000000001	5758.2943370000003
      1.7191050000000001	6000.4002049999999
      1.7256009999999999	6252.5364829999999
      1.732064	6515.4973220000002
      1.738494	6790.15362
      1.744893	7077.4616260000003
      1.751261	7378.4726540000001
      1.757598	7694.3440220000002
      1.7639039999999999	8026.3513469999998
      1.7701800000000001	8375.9023460000008
      1.776427	8744.552291
      1.782645	9134.0212510000001
      1.788834	9546.2132579999998
      1.7949949999999999	9983.2374779999991
      1.8011280000000001	10447.43145
      1.8072330000000001	10941.38629
      1.8133109999999999	11467.973819999999
      1.8193619999999999	12030.37499
      1.8253870000000001	12632.10929
      1.831385	13277.063829999999
      1.837358	13969.52079
      1.843305	14714.181049999999
      1.8492280000000001	15516.181070000001
      1.8551249999999999	16381.09935
      1.8609979999999999	17314.947639999999
      1.866846	18324.141339999998
      1.872671	19415.442930000001
      1.8784719999999999	20595.871869999999
      1.88425	21872.575840000001
      1.890004	23252.659780000002
      1.8957360000000001	24742.973529999999
      1.9014450000000001	26349.86418
      1.907133	28078.906019999999
      1.912798	29934.628089999998
      1.9184410000000001	31920.26454
      1.9240630000000001	34037.555240000002
      1.9296629999999999	36286.621249999997
      1.935243	38665.931929999999
      1.9408019999999999	41172.369030000002
      1.94634	43801.379809999999
      1.9518580000000001	46547.200389999998
      1.957355	49403.123290000003
      1.962833	52361.781179999998
      1.9682919999999999	55415.421999999999
      1.97373	58556.156179999998
      1.97915	61776.164400000001
      1.98455	65067.860919999999
      1.989932	68424.013019999999
      1.995295	71837.820730000007
      2.0006390000000001	75302.963180000006
      2.0059659999999999	78813.618239999996
      2.0112739999999998	82364.46213
      2.0165639999999998	85950.654729999995
      2.021836	89567.815289999999
      2.027091	93211.992480000001
      2.0323289999999998	96879.631450000001
      2.0375489999999998	100567.53999999999
      2.0427529999999998	104272.8551
      2.047939	107993.01149999999
      2.0531090000000001	111725.7111
      2.058262	115468.8958
      2.063399	119220.7224
      2.0685199999999999	122979.53909999999
      2.0736240000000001	126743.8655
      2.078713	130512.374
      2.0837859999999999	134283.8731
      2.0888429999999998	138057.29300000001
      2.0938850000000002	141831.67240000001
      2.0989110000000002	145606.147
      2.1039219999999998	149379.93890000001
      2.1089190000000002	153152.34830000001
      2.1139000000000001	156922.74419999999
      2.1188660000000001	160690.55840000001
      2.123818	164455.2782
      2.128755	168216.44140000001
      2.1336780000000002	171973.63080000001
      2.1385860000000001	175726.46979999999
      2.1434799999999998	179474.6188
      2.148361	183217.77100000001
      2.1532269999999998	186955.64970000001
      2.1580789999999999	190688.00520000001
      2.1629179999999999	194414.61249999999
      2.1677430000000002	198135.26860000001
      2.172555	201849.79079999999
      2.1773539999999998	205558.0148
      2.1821389999999998	209259.79310000001
      2.1869109999999998	212954.99309999999
      2.1916699999999998	216643.4963
      2.1964160000000001	220325.1967
      2.201149	224000
  <EndBlock>
  <BeginBlock>
    <BlockName> = "ShaftAir"
    <Mu_x> = 1
    <Mu_y> = 1
    <H_c> = 0
    <H_cAngle> = 0
    <J_re> = 0
    <J_im> = 0
    <Sigma> = 0
    <d_lam> = 0
    <Phi_h> = 0
    <Phi_hx> = 0
    <Phi_hy> = 0
    <LamType> = 0
    <LamFill> = 1
    <NStrands> = 0
    <WireD> = 0
    <BHPoints> = 3
      -100	-7.9577471545947675e-011
      0	0
      100	7.9577471545947675e-011
  <EndBlock>
  <BeginBlock>
    <BlockName> = "Copper"
    <Mu_x> = 1
    <Mu_y> = 1
    <H_c> = 0
    <H_cAngle> = 0
    <J_re> = 0
    <J_im> = 0
    <Sigma> = 58
    <d_lam> = 0
    <Phi_h> = 0
    <Phi_hx> = 0
    <Phi_hy> = 0
    <LamType> = 0
    <LamFill> = 1
    <NStrands> = 0
    <WireD> = 0
    <BHPoints> = 0
  <EndBlock>
  <BeginBlock>
    <BlockName> = "Aluminium"
    <Mu_x> = 1
    <Mu_y> = 1
    <H_c> = 0
    <H_cAngle> = 0
    <J_re> = 0
    <J_im> = 0
    <Sigma> = 29
    <d_lam> = 0
    <Phi_h> = 0
    <Phi_hx> = 0
    <Phi_hy> = 0
    <LamType> = 0
    <LamFill> = 1
    <NStrands> = 0
    <WireD> = 0
    <BHPoints> = 0
  <EndBlock>
  <BeginBlock>
    <BlockName> = "N33SH"
    <Mu_x> = 1.05
    <Mu_y> = 1.05
    <H_c> = 886720.39722627401
    <H_cAngle> = 0
    <J_re> = 0
    <J_im> = 0
    <Sigma> = 0.7142857142857143
    <d_lam> = 0
    <Phi_h> = 0
    <Phi_hx> = 0
    <Phi_hy> = 0
    <LamType> = 0
    <LamFill> = 1
    <NStrands> = 0
    <WireD> = 0
    <BHPoints> = 0
  <EndBlock>
  <BeginBlock>
    <BlockName> = "DW235"
    <Mu_x> = 1
    <Mu_y> = 1
    <H_c> = 0
    <H_cAngle> = 0
    <J_re> = 0
    <J_im> = 0
    <Sigma> = 0
    <d_lam> = 0
    <Phi_h> = 0
    <Phi_hx> = 0
    <Phi_hy> = 0
    <LamType> = 0
    <LamFill> = 1
    <NStrands> = 0
    <WireD> = 0
    <BHPoints> = 0
  <EndBlock>
  <BeginBlock>
    <BlockName> = "Air"
    <Mu_x> = 1
    <Mu_y> = 1
    <H_c> = 0
    <H_cAngle> = 0
    <J_re> = 0
    <J_im> = 0
    <Sigma> = 0
    <d_lam> = 0
    <Phi_h> = 0
    <Phi_hx> = 0
    <Phi_hy> = 0
    <LamType> = 0
    <LamFill> = 1
    <NStrands> = 0
    <WireD> = 0
    <BHPoints> = 0
  <EndBlock>
  <BeginBlock>
    <BlockName> = "N33SH_1"
    <Mu_x> = 1.05
    <Mu_y> = 1.05
    <H_c> = 886720.39722627401
    <H_cAngle> = 0
    <J_re> = 0
    <J_im> = 0
    <Sigma> = 0.7142857142857143
    <d_lam> = 0
    <Phi_h> = 0
    <Phi_hx> = 0
    <Phi_hy> = 0
    <LamType> = 0
    <LamFill> = 1
    <NStrands> = 0
    <WireD> = 0
    <BHPoints> = 0
  <EndBlock>
  <BeginBlock>
    <BlockName> = "N33SH_2"
    <Mu_x> = 1.05
    <Mu_y> = 1.05
    <H_c> = 886720.39722627401
    <H_cAngle> = 0
    <J_re> = 0
    <J_im> = 0
    <Sigma> = 0.7142857142857143
    <d_lam> = 0
    <Phi_h> = 0
    <Phi_hx> = 0
    <Phi_hy> = 0
    <LamType> = 0
    <LamFill> = 1
    <NStrands> = 0
    <WireD> = 0
    <BHPoints> = 0
  <EndBlock>
[CircuitProps]  = 24
  <BeginCircuit>
    <CircuitName> = "fase1"
    <TotalAmps_re> = 0
    <TotalAmps_im> = 0
    <CircuitType> = 1
  <EndCircuit>
  <BeginCircuit>
    <CircuitName> = "fase2"
    <TotalAmps_re> = 0
    <TotalAmps_im> = 0
    <CircuitType> = 1
  <EndCircuit>
  <BeginCircuit>
    <CircuitName> = "fase3"
    <TotalAmps_re> = 0
    <TotalAmps_im> = 0
    <CircuitType> = 1
  <EndCircuit>
  <BeginCircuit>
    <CircuitName> = "fase1n"
    <TotalAmps_re> = 0
    <TotalAmps_im> = 0
    <CircuitType> = 1
  <EndCircuit>
  <BeginCircuit>
    <CircuitName> = "fase2n"
    <TotalAmps_re> = 0
    <TotalAmps_im> = 0
    <CircuitType> = 1
  <EndCircuit>
  <BeginCircuit>
    <CircuitName> = "fase3n"
    <TotalAmps_re> = 0
    <TotalAmps_im> = 0
    <CircuitType> = 1
  <EndCircuit>
  <BeginCircuit>
    <CircuitName> = "fase4"
    <TotalAmps_re> = 0
    <TotalAmps_im> = 0
    <CircuitType> = 1
  <EndCircuit>
  <BeginCircuit>
    <CircuitName> = "fase5"
    <TotalAmps_re> = 0
    <TotalAmps_im> = 0
    <CircuitType> = 1
  <EndCircuit>
  <BeginCircuit>
    <CircuitName> = "fase6"
    <TotalAmps_re> = 0
    <TotalAmps_im> = 0
    <CircuitType> = 1
  <EndCircuit>
  <BeginCircuit>
    <CircuitName> = "fase4n"
    <TotalAmps_re> = 0
    <TotalAmps_im> = 0
    <CircuitType> = 1
  <EndCircuit>
  <BeginCircuit>
    <CircuitName> = "fase5n"
    <TotalAmps_re> = 0
    <TotalAmps_im> = 0
    <CircuitType> = 1
  <EndCircuit>
  <BeginCircuit>
    <CircuitName> = "fase6n"
    <TotalAmps_re> = 0
    <TotalAmps_im> = 0
    <CircuitType> = 1
  <EndCircuit>
  <BeginCircuit>
    <CircuitName> = "fase7"
    <TotalAmps_re> = 0
    <TotalAmps_im> = 0
    <CircuitType> = 1
  <EndCircuit>
  <BeginCircuit>
    <CircuitName> = "fase8"
    <TotalAmps_re> = 0
    <TotalAmps_im> = 0
    <CircuitType> = 1
  <EndCircuit>
  <BeginCircuit>
    <CircuitName> = "fase9"
    <TotalAmps_re> = 0
    <TotalAmps_im> = 0
    <CircuitType> = 1
  <EndCircuit>
  <BeginCircuit>
    <CircuitName> = "fase7n"
    <TotalAmps_re> = 0
    <TotalAmps_im> = 0
    <CircuitType> = 1
  <EndCircuit>
  <BeginCircuit>
    <CircuitName> = "fase8n"
    <TotalAmps_re> = 0
    <TotalAmps_im> = 0
    <CircuitType> = 1
  <EndCircuit>
  <BeginCircuit>
    <CircuitName> = "fase9n"
    <TotalAmps_re> = 0
    <TotalAmps_im> = 0
    <CircuitType> = 1
  <EndCircuit>
  <BeginCircuit>
    <CircuitName> = "fase10"
    <TotalAmps_re> = 0
    <TotalAmps_im> = 0
    <CircuitType> = 1
  <EndCircuit>
  <BeginCircuit>
    <CircuitName> = "fase11"
    <TotalAmps_re> = 0
    <TotalAmps_im> = 0
    <CircuitType> = 1
  <EndCircuit>
  <BeginCircuit>
    <CircuitName> = "fase12"
    <TotalAmps_re> = 0
    <TotalAmps_im> = 0
    <CircuitType> = 1
  <EndCircuit>
  <BeginCircuit>
    <CircuitName> = "fase10n"
    <TotalAmps_re> = 0
    <TotalAmps_im> = 0
    <CircuitType> = 1
  <EndCircuit>
  <BeginCircuit>
    <CircuitName> = "fase11n"
    <TotalAmps_re> = 0
    <TotalAmps_im> = 0
    <CircuitType> = 1
  <EndCircuit>
  <BeginCircuit>
    <CircuitName> = "fase12n"
    <TotalAmps_re> = 0
    <TotalAmps_im> = 0
    <CircuitType> = 1
  <EndCircuit>
[NumPoints] = 227
16.635869601450665	19.957402581292843	0	2
18.252259763625755	19.666473325998844	0	2
21.633353105931103	23.047566668304192	0	2
21.835529705733098	24.170850975383289	0	2
12.150665534628093	45.330777905678133	0	2
11.484176584603684	45.884678141767978	0	2
5.9747296232794866	46.921131763084176	0	2
4.9391306054351354	45.51296413649213	0	2
21.66905869537608	24.534564327778707	0	2
15.957388729302167	21.920342265772984	0	2
12.192696430802794	45.238946912887862	0	2
6.481026464728874	42.624724850882139	0	2
19.666473325998847	18.252259763625752	0	2
19.957402581292847	16.635869601450661	0	2
23.047566668304196	21.6333531059311	0	2
24.170850975383292	21.835529705733094	0	2
45.330777905678133	12.150665534628082	0	2
45.884678141767978	11.484176584603677	0	2
46.921131763084176	5.9747296232794795	0	2
45.51296413649213	4.9391306054351283	0	2
24.53456432777871	21.669058695376076	0	2
21.920342265772987	15.957388729302163	0	2
45.238946912887869	12.192696430802783	0	2
42.624724850882146	6.4810264647288705	0	2
48.299999999999997	0	0	20
20	0	0	2
2.9575220199408579e-015	48.299999999999997	0	20
1.2246467991473533e-015	20	0	2
0	0	0	2
79.299999999999997	0	0	1
49	0	0	20
4.8557245586192551e-015	79.299999999999997	0	1
3.0003846579110155e-015	49	0	20
49.34913430712556	3.8612112684132818	0	1
49.390034566697175	3.2371938940656468	0	1
49.526969376412382	4.7552485353238918	0	1
62.630523271376184	6.4803641328669261	0	1
63.75748114545317	5.5733224905742089	0	1
63.874945394349488	4.1865851082799175	0	1
63.939491618506182	2.7963792953988493	0	1
62.940567717021288	1.7499999999999996	0	1
49.723943772037927	1.7499999999999996	0	1
49.430934826268789	2.6131765197180119	0	1
56.737792318508738	1.75	0	1
56.480813476265027	5.6707394789028696	0	1
48.850204845506255	3.8285097037982103	0	1
48.932005364649484	2.5804749551029396	0	1
48.422956417822512	10.269532661212013	0	1
48.544957381756397	9.6561923971497681	0	1
48.482574803286319	11.179133449804421	0	1
61.24885320809625	14.599847438724122	0	1
62.48456249308812	13.847663183516621	0	1
62.782027369171587	12.488121692896399	0	1
63.027479662590373	11.11823425632482	0	1
62.173681598606002	9.9504211476752609	0	1
49.070127703642193	8.2253055501322265	0	1
48.666958345690276	9.0428521330875213	0	1
56.023971803494845	9.1407964937112052	0	1
55.25743225600251	12.994451033095697	0	1
47.932563777620892	10.171987500203949	0	1
48.176565705488663	8.9453069720794574	0	1
46.668248318830642	16.502139502925044	0	1
46.869262516808838	15.90997077111634	0	1
46.608629933366821	17.411740291517454	0	1
58.819198285035519	22.469523307062314	0	1
60.142515652472724	21.885066520091499	0	1
60.614891449240709	20.575983052985979	0	1
61.037050055128951	19.249853146568174	0	1
60.342986550237434	17.980587830735864	0	1
47.576708145427496	14.559873841816158	0	1
47.07027671478702	15.317802039307638	0	1
54.351565598143694	16.375191425107438	0	1
53.08858104958523	20.095823927369793	0	1
46.194783254083092	16.341419770273465	0	1
46.596811650039463	15.157082306656054	0	1
44.115033552220702	22.452390162485589	0	1
44.391621575584125	21.891525134111866	0	1
43.937198482933873	23.346427429396201	0	1
55.383130571555157	29.954739401887878	0	1
56.771413694387959	29.548010300820856	0	1
57.410617930990441	28.31178363829871	0	1
58.002259598556925	27.052101712406163	0	1
57.479806271757703	25.703101670851822	0	1
45.269237920088997	20.645318655306955	0	1
44.668209598947541	21.33066010573814	0	1
51.749189036307421	23.329402291159301	0	1
50.011369502474146	26.853351702631599	0	1
43.666597181454357	22.231245817376092	0	1
44.219773228181197	21.109515760628639	0	1
40.80699833053427	28.018474201387413	0	1
41.154427681518484	27.498509432585305	0	1
40.513989384765118	28.881650721105423	0	1
50.999442138890785	36.927421600524362	0	1
52.428937107982712	36.705379433047007	0	1
53.224032822710534	35.563161756050775	0	1
53.975034398989123	34.391481317685319	0	1
53.633130571555171	32.985828315133411	0	1
42.187198482933873	26.377516342641727	0	1
41.501857032502699	26.978544663783197	0	1
48.261369502474153	29.884440615877132	0	1
46.078449557404554	33.151411185105722	0	1
40.391263524383	27.740689084877612	0	1
41.086122226351421	26.700759547273393	0	1
36.800744053575009	33.105154378514868	0	1
37.213070119659058	32.634986610640048	0	1
36.397574695623071	33.922700961470156	0	1
45.743139111513308	43.268265377360379	0	1
47.189386871612321	43.234709346519942	0	1
48.126769756344302	42.206044316185604	0	1
49.024281396147913	41.14241314249886	0	1
48.868777137360262	39.704158291543685	0	1
38.383324383234594	31.658387412124739	0	1
37.625396185743121	32.164818842765229	0	1
43.94778455587403	35.928147876125045	0	1
41.357114565047986	38.882240830895071	0	1
36.424824149835516	32.775481470964834	0	1
37.249476282003627	31.835145935215191	0	1
32.164818842765236	37.625396185743121	0	1
32.634986610640055	37.213070119659058	0	1
31.658387412124753	38.383324383234587	0	1
39.704158291543692	48.868777137360254	0	1
41.142413142498867	49.024281396147906	0	1
42.206044316185611	48.126769756344295	0	1
43.234709346519956	47.189386871612328	0	1
43.268265377360393	45.743139111513308	0	1
33.922700961470156	36.397574695623071	0	1
33.105154378514868	36.800744053575002	0	1
38.882240830895078	41.357114565047993	0	1
35.92814787612506	43.947784555874023	0	1
31.835145935215202	37.249476282003627	0	1
32.775481470964834	36.424824149835509	0	1
26.978544663783204	41.501857032502691	0	1
27.498509432585308	41.154427681518477	0	1
26.377516342641734	42.187198482933873	0	1
32.985828315133411	53.633130571555164	0	1
34.391481317685319	53.975034398989116	0	1
35.563161756050775	53.224032822710527	0	1
36.705379433047014	52.428937107982719	0	1
36.927421600524369	50.999442138890778	0	1
28.881650721105423	40.513989384765111	0	1
28.018474201387413	40.806998330534263	0	1
33.151411185105729	46.078449557404547	0	1
29.884440615877136	48.261369502474146	0	1
26.7007595472734	41.086122226351421	0	1
27.740689084877612	40.391263524382993	0	1
21.330660105738151	44.668209598947548	0	1
21.891525134111873	44.391621575584125	0	1
20.645318655306966	45.269237920089004	0	1
25.703101670851826	57.479806271757703	0	1
27.05210171240617	58.002259598556918	0	1
28.311783638298717	57.410617930990441	0	1
29.548010300820867	56.771413694387967	0	1
29.954739401887885	55.383130571555164	0	1
23.346427429396204	43.937198482933866	0	1
22.452390162485596	44.115033552220702	0	1
26.85335170263161	50.011369502474146	0	1
23.329402291159305	51.749189036307421	0	1
21.109515760628646	44.219773228181197	0	1
22.231245817376095	43.666597181454357	0	1
15.317802039307644	47.07027671478702	0	1
15.909970771116345	46.869262516808831	0	1
14.559873841816163	47.576708145427496	0	1
17.980587830735868	60.342986550237427	0	1
19.249853146568178	61.037050055128944	0	1
20.575983052985983	60.614891449240702	0	1
21.885066520091506	60.142515652472731	0	1
22.469523307062321	58.819198285035519	0	1
17.411740291517454	46.608629933366814	0	1
16.502139502925047	46.668248318830635	0	1
20.0958239273698	53.088581049585237	0	1
16.375191425107442	54.351565598143686	0	1
15.157082306656063	46.596811650039463	0	1
16.341419770273468	46.194783254083085	0	1
9.0428521330875355	48.666958345690283	0	1
9.6561923971497787	48.54495738175639	0	1
8.225305550132239	49.0701277036422	0	1
9.9504211476752751	62.173681598605995	0	1
11.118234256324833	63.027479662590359	0	1
12.488121692896417	62.782027369171587	0	1
13.847663183516635	62.48456249308812	0	1
14.59984743872414	61.24885320809625	0	1
11.179133449804432	48.482574803286312	0	1
10.269532661212024	48.422956417822505	0	1
12.994451033095711	55.25743225600251	0	1
9.1407964937112176	56.023971803494845	0	1
8.9453069720794698	48.176565705488663	0	1
10.17198750020396	47.932563777620885	0	1
2.613176519718019	49.430934826268789	0	1
3.2371938940656535	49.390034566697175	0	1
1.7500000000000062	49.723943772037934	0	1
1.750000000000008	62.940567717021281	0	1
2.7963792953988573	63.939491618506167	0	1
4.1865851082799255	63.874945394349481	0	1
5.5733224905742169	63.757481145453177	0	1
6.4803641328669332	62.630523271376184	0	1
4.7552485353238971	49.526969376412374	0	1
3.861211268413288	49.349134307125553	0	1
5.6707394789028767	56.480813476265027	0	1
1.7500000000000071	56.737792318508731	0	1
2.5804749551029471	48.932005364649491	0	1
3.828509703798217	48.850204845506248	0	1
78.621577506943154	10.350727043050089	0	1
48.580798207316711	6.3957834187825267	0	1
76.597918024723114	20.524350276629892	0	1
47.330365488164347	12.682133210023515	0	1
73.263646928145036	30.346796186551618	0	1
45.270097093053053	18.7514881858894	0	1
68.675814520105988	39.649999999999991	0	1
42.435244785437497	24.499999999999996	0	1
62.912919885094944	48.27478132039154	0	1
38.874313674270525	29.829310021427307	0	1
56.073567748093218	56.073567748093211	0	1
34.648232278140831	34.648232278140824	0	1
48.274781320391547	62.912919885094944	0	1
29.829310021427311	38.874313674270525	0	1
39.649999999999991	68.675814520105988	0	1
24.499999999999993	42.435244785437497	0	1
30.346796186551622	73.263646928145036	0	1
18.751488185889404	45.270097093053053	0	1
20.524350276629892	76.597918024723114	0	1
12.682133210023515	47.330365488164347	0	1
10.350727043050101	78.621577506943154	0	1
6.3957834187825338	48.580798207316711	0	1
48.766666666666666	0	0	20
2.986097111920963e-015	48.766666666666666	0	20
48.533333333333331	0	0	20
2.9718095659309104e-015	48.533333333333331	0	20
[NumSegments] = 193
2	1	2.5	0	0	2
4	10	2.5	0	0	2
0	7	2.5	0	0	2
8	3	2.5	0	0	2
8	9	2.5	0	0	2
10	8	2.5	0	0	2
11	10	2.5	0	0	2
9	11	2.5	0	0	2
14	12	2.5	0	0	2
16	22	2.5	0	0	2
13	19	2.5	0	0	2
20	15	2.5	0	0	2
20	21	2.5	0	0	2
22	20	2.5	0	0	2
23	22	2.5	0	0	2
21	23	2.5	0	0	2
24	25	-1	4	0	2
27	26	-1	4	0	2
25	28	-1	2	0	2
28	27	-1	2	0	2
29	30	-1	10	0	1
32	31	-1	10	0	1
33	34	2.5	0	0	1
35	33	2.5	0	0	1
36	44	2.5	0	0	1
38	37	2.5	0	0	1
39	38	2.5	0	0	1
41	43	2.5	0	0	1
42	41	2.5	0	0	1
34	42	2.5	0	0	1
43	40	2.5	0	0	1
44	35	2.5	0	0	1
43	44	2.5	0	0	1
33	45	2.5	0	0	1
46	42	2.5	0	0	1
47	48	2.5	0	0	1
49	47	2.5	0	0	1
50	58	2.5	0	0	1
52	51	2.5	0	0	1
53	52	2.5	0	0	1
55	57	2.5	0	0	1
56	55	2.5	0	0	1
48	56	2.5	0	0	1
57	54	2.5	0	0	1
58	49	2.5	0	0	1
57	58	2.5	0	0	1
47	59	2.5	0	0	1
60	56	2.5	0	0	1
61	62	2.5	0	0	1
63	61	2.5	0	0	1
64	72	2.5	0	0	1
66	65	2.5	0	0	1
67	66	2.5	0	0	1
69	71	2.5	0	0	1
70	69	2.5	0	0	1
62	70	2.5	0	0	1
71	68	2.5	0	0	1
72	63	2.5	0	0	1
71	72	2.5	0	0	1
61	73	2.5	0	0	1
74	70	2.5	0	0	1
75	76	2.5	0	0	1
77	75	2.5	0	0	1
78	86	2.5	0	0	1
80	79	2.5	0	0	1
81	80	2.5	0	0	1
83	85	2.5	0	0	1
84	83	2.5	0	0	1
76	84	2.5	0	0	1
85	82	2.5	0	0	1
86	77	2.5	0	0	1
85	86	2.5	0	0	1
75	87	2.5	0	0	1
88	84	2.5	0	0	1
89	90	2.5	0	0	1
91	89	2.5	0	0	1
92	100	2.5	0	0	1
94	93	2.5	0	0	1
95	94	2.5	0	0	1
97	99	2.5	0	0	1
98	97	2.5	0	0	1
90	98	2.5	0	0	1
99	96	2.5	0	0	1
100	91	2.5	0	0	1
99	100	2.5	0	0	1
89	101	2.5	0	0	1
102	98	2.5	0	0	1
103	104	2.5	0	0	1
105	103	2.5	0	0	1
106	114	2.5	0	0	1
108	107	2.5	0	0	1
109	108	2.5	0	0	1
111	113	2.5	0	0	1
112	111	2.5	0	0	1
104	112	2.5	0	0	1
113	110	2.5	0	0	1
114	105	2.5	0	0	1
113	114	2.5	0	0	1
103	115	2.5	0	0	1
116	112	2.5	0	0	1
117	118	2.5	0	0	1
119	117	2.5	0	0	1
120	128	2.5	0	0	1
122	121	2.5	0	0	1
123	122	2.5	0	0	1
125	127	2.5	0	0	1
126	125	2.5	0	0	1
118	126	2.5	0	0	1
127	124	2.5	0	0	1
128	119	2.5	0	0	1
127	128	2.5	0	0	1
117	129	2.5	0	0	1
130	126	2.5	0	0	1
131	132	2.5	0	0	1
133	131	2.5	0	0	1
134	142	2.5	0	0	1
136	135	2.5	0	0	1
137	136	2.5	0	0	1
139	141	2.5	0	0	1
140	139	2.5	0	0	1
132	140	2.5	0	0	1
141	138	2.5	0	0	1
142	133	2.5	0	0	1
141	142	2.5	0	0	1
131	143	2.5	0	0	1
144	140	2.5	0	0	1
145	146	2.5	0	0	1
147	145	2.5	0	0	1
148	156	2.5	0	0	1
150	149	2.5	0	0	1
151	150	2.5	0	0	1
153	155	2.5	0	0	1
154	153	2.5	0	0	1
146	154	2.5	0	0	1
155	152	2.5	0	0	1
156	147	2.5	0	0	1
155	156	2.5	0	0	1
145	157	2.5	0	0	1
158	154	2.5	0	0	1
159	160	2.5	0	0	1
161	159	2.5	0	0	1
162	170	2.5	0	0	1
164	163	2.5	0	0	1
165	164	2.5	0	0	1
167	169	2.5	0	0	1
168	167	2.5	0	0	1
160	168	2.5	0	0	1
169	166	2.5	0	0	1
170	161	2.5	0	0	1
169	170	2.5	0	0	1
159	171	2.5	0	0	1
172	168	2.5	0	0	1
173	174	2.5	0	0	1
175	173	2.5	0	0	1
176	184	2.5	0	0	1
178	177	2.5	0	0	1
179	178	2.5	0	0	1
181	183	2.5	0	0	1
182	181	2.5	0	0	1
174	182	2.5	0	0	1
183	180	2.5	0	0	1
184	175	2.5	0	0	1
183	184	2.5	0	0	1
173	185	2.5	0	0	1
186	182	2.5	0	0	1
187	188	2.5	0	0	1
189	187	2.5	0	0	1
190	198	2.5	0	0	1
192	191	2.5	0	0	1
193	192	2.5	0	0	1
195	197	2.5	0	0	1
196	195	2.5	0	0	1
188	196	2.5	0	0	1
197	194	2.5	0	0	1
198	189	2.5	0	0	1
197	198	2.5	0	0	1
187	199	2.5	0	0	1
200	196	2.5	0	0	1
201	202	2.5	0	0	1
203	204	2.5	0	0	1
205	206	2.5	0	0	1
207	208	2.5	0	0	1
209	210	2.5	0	0	1
211	212	2.5	0	0	1
213	214	2.5	0	0	1
215	216	2.5	0	0	1
217	218	2.5	0	0	1
219	220	2.5	0	0	1
221	222	2.5	0	0	1
223	30	0.25	7	0	20
224	32	0.25	7	0	20
225	24	0.25	5	0	20
226	26	0.25	5	0	20
[NumArcSegments] = 86
0	1	110.4065071912284	10	0	0	2	10
2	3	69.593492808771359	10	0	0	2	10
4	5	51.354978358461963	10	0	0	2	10
5	6	6.7947903401971672	0.75707953902064384	0	0	2	0.75707953902064384
6	7	121.85023130134024	10	0	0	2	10
12	13	110.40650719122837	10	0	0	2	10
15	14	69.593492808771359	10	0	0	2	10
17	16	51.354978358462276	10	0	0	2	10
18	17	6.7947903401971539	0.75707953902064384	0	0	2	0.75707953902064384
19	18	121.85023130134027	10	0	0	2	10
24	26	90	0.74140501440323925	0	0	2	0.74140501440323925